<?xml version="1.0" ?>
<configuration>
    <input>
        <net-file value="../data/Minneapolis.net.xml"/>
        <route-files value="../data/complete_routes.rou.xml"/>
    </input>
    <time>
        <begin value="0"/>
        <end value="14400"/>
        <step-length value="1"/>
    </time>
</configuration>
